12

C   0.000   1.397  -0.004
C   1.209   0.700   0.001
C   1.210  -0.698   0.004
C   0.000  -1.397   0.004
C  -1.209  -0.700   0.001
C  -1.210   0.698  -0.004
H   0.000   2.500  -0.008
H   2.164   1.250   0.004
H   2.165  -1.247   0.008
H   0.000  -2.500   0.008
H  -2.164  -1.250   0.004
H  -2.165   1.248  -0.007
