14

C  -0.003   0.007  -0.766
C  -0.003  -0.005   0.766
H   0.897  -0.515  -1.167
C   0.003   1.443  -1.303
H  -0.905  -0.509  -1.168
H  -0.903   0.516   1.167
H   0.899   0.510   1.168
C  -0.009  -1.442   1.303
H  -0.896   1.975  -0.946
H   0.002   1.426  -2.406
H   0.905   1.969  -0.946
H  -0.031  -1.425   2.406
H   0.901  -1.967   0.965
H  -0.900  -1.975   0.927
