39

N  -2.054  -4.413  -2.529
C  -1.249  -3.331  -1.923
C   0.167  -3.753  -1.508
C  -1.984  -2.762  -0.692
O   1.100  -3.082  -1.144
C  -1.388  -1.427  -0.234
C  -2.120  -0.884   0.998
C  -1.521   0.446   1.483
N  -1.789   1.531   0.512
O   0.312  -5.121  -1.609
H  -1.575  -4.819  -3.330
H  -2.215  -5.169  -1.867
H  -1.127  -2.518  -2.697
H  -3.055  -2.627  -0.962
H  -1.977  -3.496   0.136
H  -1.440  -0.684  -1.056
H  -0.306  -1.546  -0.012
H  -3.198  -0.763   0.777
H  -2.066  -1.618   1.827
H  -0.426   0.337   1.658
H  -1.957   0.724   2.472
H  -2.758   1.629   0.206
C  -0.901   2.526   0.123
H   1.218  -5.435  -1.349
C   0.563   2.447   0.569
O  -1.318   3.408  -0.619
C   1.426   3.582  -0.093
H   0.970   1.434   0.316
C   1.963   4.394   1.118
H   0.762   4.232  -0.717
C   2.537   3.013  -0.963
C   1.390   3.666   2.314
H   1.623   5.444   1.082
H   3.065   4.425   1.149
H   1.601   3.998   3.328
N   0.651   2.637   2.043
H   3.147   3.813  -1.400
H   2.128   2.432  -1.800
H   3.211   2.355  -0.403
